21
charge 0, multiplicity 1, autogenerated by Rowan
O     1.22141333   0.80648411   0.65561706
O    -0.73259163  -2.76113329  -0.46449843
O     1.15775587  -1.88999110   0.32462381
O     1.83549750   0.64522292  -1.51072480
C    -0.11377814   0.75026507   0.33125495
C    -0.74323442  -0.45192657   0.00912751
C    -0.83215973   1.93168065   0.40280824
C    -2.11012113  -0.42770072  -0.26414035
C    -2.18858936   1.93256475   0.13495016
C    -2.83089526   0.75086484  -0.20630847
C     0.01302815  -1.73242695  -0.01674941
C     2.13103268   0.61898853  -0.35497198
C     3.49562763   0.42692696   0.21968095
H    -0.31014734   2.83974381   0.66353086
H    -2.59700296  -1.35207392  -0.52581966
H    -2.74159612   2.85840461   0.18970608
H    -3.88786011   0.74513247  -0.42488698
H     3.68699395   1.17261113   0.98699216
H     4.23233354   0.49014118  -0.57202371
H     3.53728402  -0.55389835   0.68652046
H    -0.16119051  -3.53717781  -0.44418891